188L.lig
 OpenBabel06212320153D

 18 18  0  0  0  0  0  0  0  0999 V2000
   27.2140    7.4650    4.4890 C   0  0  0  0  0  0  0  0  0  0  0  0
   27.5750    6.9460    3.2690 C   0  0  0  0  0  0  0  0  0  0  0  0
   27.2520    5.6280    2.9580 C   0  0  0  0  0  0  0  0  0  0  0  0
   27.6340    5.1780    2.0570 H   0  0  0  0  0  0  0  0  0  0  0  0
   26.4320    4.8790    3.8100 C   0  0  0  0  0  0  0  0  0  0  0  0
   26.1140    3.8920    3.5210 H   0  0  0  0  0  0  0  0  0  0  0  0
   26.0190    5.4030    5.0400 C   0  0  0  0  0  0  0  0  0  0  0  0
   25.3840    4.8210    5.6870 H   0  0  0  0  0  0  0  0  0  0  0  0
   26.4360    6.6760    5.4130 C   0  0  0  0  0  0  0  0  0  0  0  0
   26.1830    7.0740    6.3810 H   0  0  0  0  0  0  0  0  0  0  0  0
   27.6430    8.8780    4.7960 C   0  0  0  0  0  0  0  0  0  0  0  0
   28.7000    8.9370    4.7830 H   0  0  0  0  0  0  0  0  0  0  0  0
   27.2440    9.5340    4.0670 H   0  0  0  0  0  0  0  0  0  0  0  0
   27.2860    9.1550    5.7540 H   0  0  0  0  0  0  0  0  0  0  0  0
   28.4530    7.7660    2.3490 C   0  0  0  0  0  0  0  0  0  0  0  0
   29.3210    8.0740    2.8710 H   0  0  0  0  0  0  0  0  0  0  0  0
   27.9190    8.6190    2.0190 H   0  0  0  0  0  0  0  0  0  0  0  0
   28.7330    7.1790    1.5130 H   0  0  0  0  0  0  0  0  0  0  0  0
  2  1  2  0  0  0  0
  3  2  1  0  0  0  0
  4  3  1  0  0  0  0
  5  3  2  0  0  0  0
  6  5  1  0  0  0  0
  7  5  1  0  0  0  0
  8  7  1  0  0  0  0
  9  1  1  0  0  0  0
  9  7  2  0  0  0  0
 10  9  1  0  0  0  0
 11  1  1  0  0  0  0
 12 11  1  0  0  0  0
 13 11  1  0  0  0  0
 14 11  1  0  0  0  0
 15  2  1  0  0  0  0
 16 15  1  0  0  0  0
 17 15  1  0  0  0  0
 18 15  1  0  0  0  0
M  END
$$$$
